/*--------------------------------*- C++ -*----------------------------------*\
| =========                 |                                                 |
| \\      /  F ield         | OpenFOAM: The Open Source CFD Toolbox           |
|  \\    /   O peration     | Version:  v2006                                 |
|   \\  /    A nd           | Website:  www.openfoam.com                      |
|    \\/     M anipulation  |                                                 |
\*---------------------------------------------------------------------------*/
FoamFile
{
    version     2.0;
    format      ascii;
    class       polyBoundaryMesh;
    location    "constant/polyMesh";
    object      boundary;
}
// * * * * * * * * * * * * * * * * * * * * * * * * * * * * * * * * * * * * * //


3
(
    frontAndBack2
    {
        type            empty;
        nFaces          9600;
        startFace       9480;
    }

    sides
    {
        type            overset;
        nFaces          120;
        startFace       19080;
    }

    ball
    {
        type            wall;
        nFaces          120;
        startFace       19200;
    }

)


// ************************************************************************* //
